8

C         -2.70568        3.13768       -0.10765
C         -1.27855        2.82617        0.30963
H         -3.31660        2.21084       -0.08117
H         -3.14664        3.88380        0.58648
H         -0.83759        2.08005       -0.38450
H         -0.66763        3.75302        0.28314
H         -1.26913        2.41380        1.34055
H         -2.71510        3.55006       -1.13858

