15
H8 C4 O3
O 0.663253 -0.458691 -0.000071
O -1.470026 -0.780853 -0.000115
O -0.701591 1.344432 -0.000727
C 1.816688 0.416703 -0.000306
C 3.048419 -0.455543 -0.000119
C -0.517921 0.149803 -0.000318
C -2.816792 -0.277655 -0.000423
H 1.771371 1.051801 -0.888046
H 1.771403 1.052229 0.887131
H 3.936849 0.181457 -0.000297
H 3.081074 -1.090123 0.889135
H 3.081029 -1.090559 -0.889062
H -3.000950 0.320857 0.893103
H -3.457001 -1.158047 -0.000275
H -3.000716 0.320389 -0.894309