16

O    -2.255868     2.650457     0.012551
C    -1.809275     1.473031     0.015686
O    -2.557967     0.452047     0.026218
O    -0.474738     1.328948     0.007241
C     0.021386    -0.012379     0.010851
O     2.027099    -1.232759     0.003431
C     3.361634    -1.376843    -0.005202
C     1.530975     0.108567    -0.000226
O     4.110324    -0.355861    -0.015950
O     3.808227    -2.554269    -0.002085
Li    -3.876543     1.762975     0.028402
Li     5.428900    -1.666789    -0.018264
H    -0.336046    -0.551480    -0.869288
H    -0.323794    -0.542177     0.901467
H     1.876161     0.638342    -0.890852
H     1.888400     0.647692     0.879903