13
Li1 H5 C3 O4
C -0.040178 0.049609 0.056991
C 1.464019 0.129795 -0.096416
O 1.939947 -1.220713 -0.140556
C 3.268548 -1.390984 -0.283742
O 4.031683 -0.391403 -0.372522
O 3.677600 -2.581216 -0.321202
O -0.519156 1.390344 0.101596
Li 5.369383 -1.742058 -0.509851
H -0.293172 -0.487928 0.978851
H -0.472876 -0.493287 -0.792022
H 1.909895 0.657731 0.750360
H 1.729926 0.652426 -1.018663
H -1.475441 1.363691 0.199752

