16

Mg        -1.07367       -0.05831       -0.10101
N          2.42522        0.48257        0.28180
S          1.97819       -1.01170        0.30131
O          2.71976       -1.78463        1.23345
O          0.52148       -1.19624        0.31622
C          2.44746       -1.59970       -1.38265
F          3.74089       -1.41324       -1.58481
F          1.74977       -0.91312       -2.28951
F          2.15807       -2.89078       -1.49214
S          1.56877        1.75875        0.00380
O          0.18542        1.46730       -0.38547
O          2.25872        2.72199       -0.77824
C          1.36941        2.47079        1.69180
F          0.71941        1.58692        2.45436
F          2.55070        2.73020        2.22546
F          0.65515        3.58612        1.61328

