24

C         -0.58619        2.06146        2.11605
O          0.39894        1.41095        1.27517
C          1.76771        1.64962        1.70374
C          2.67452        1.22553        0.57269
O          2.22129       -0.08666        0.16701
C          2.79099       -0.59837       -1.05985
C          1.98609       -1.82657       -1.41402
O          0.58062       -1.46778       -1.31578
C         -0.30120       -2.44470       -1.92299
Mg         0.22994       -0.19511        0.14700
H         -1.56956        1.79800        1.72742
H         -0.47741        1.70973        3.14381
H         -0.43928        3.14078        2.06004
H          1.94890        1.07287        2.61481
H          1.89565        2.71432        1.90845
H          3.71161        1.17496        0.91037
H          2.59464        1.90428       -0.28226
H          3.83994       -0.85874       -0.90473
H          2.70939        0.17232       -1.83268
H          2.17859       -2.65638       -0.72838
H          2.20312       -2.13484       -2.43863
H         -1.32297       -2.09719       -1.77255
H         -0.07983       -2.50391       -2.98935
H         -0.15570       -3.41490       -1.44401

