17

S      -0.5755122017     2.2315131206     0.4137987065
O      -1.3671229073     3.4516250570     0.6574182212
O       0.5204978548     2.3795389194    -0.5633126357
O      -0.2492950081     1.4337123650     1.6130959952
C      -1.7598841458     1.1194473118    -0.5111344893
F      -2.3477608063     1.8293024712    -1.4981959008
F      -1.0646839694     0.1178120122    -1.0805026655
C      -2.8649582056     0.4873942011     0.3568525112
C      -4.0703468909    -0.0305307977    -0.4649975242
C      -4.9653144528    -1.0364836317     0.2872986907
F      -3.3382738987     1.3816603682     1.2367731656
F      -2.3515363715    -0.5542040649     1.0348224855
F      -3.6377531621    -0.6459233342    -1.5785969027
F      -4.8442244713     1.0067907700    -0.8145767074
F      -4.3577810836    -2.2059303535     0.4281207191
F      -6.0808183428    -1.2270576310    -0.4132635744
F      -5.2925796368    -0.5682809835     1.4858124050