34

S    1.9038129   -0.1374907    0.0248411
C    3.2494633    0.7649193    0.7835465
C    2.9160890    1.4907909    1.9264094
H    1.8788801    1.5129492    2.2707192
C    3.9243101    2.2061807    2.5680798
H    3.6821278    2.7864718    3.4593340
C    5.2241889    2.2017016    2.0634016
H    6.0045665    2.7741802    2.5674716
C    5.5295248    1.4837516    0.9070046
H    6.5431436    1.4945432    0.5035080
C    4.5378168    0.7576702    0.2521795
H    4.7602773    0.2084895   -0.6630694
C    2.4521953   -0.4253759   -1.6576123
C    2.1118336    0.5767088   -2.5687034
H    1.5560890    1.4531553   -2.2262599
C    2.4845743    0.4119614   -3.9005857
H    2.2259575    1.1841065   -4.6262529
C    3.1652360   -0.7352356   -4.3069439
H    3.4445954   -0.8591958   -5.3544656
C    3.4800665   -1.7316616   -3.3831664
H    4.0015309   -2.6346046   -3.7040780
C    3.1210966   -1.5855322   -2.0453753
H    3.3497023   -2.3668661   -1.3214988
C    1.9746018   -1.7533775    0.7890960
C    3.1210714   -2.2715987    1.3890209
H    4.0434174   -1.6911121    1.4134841
C    3.0581383   -3.5385963    1.9642722
H    3.9459613   -3.9580805    2.4397533
C    1.8655798   -4.2619907    1.9424663
H    1.8232850   -5.2513921    2.4006686
C    0.7230132   -3.7204094    1.3551204
H   -0.2150775   -4.2766033    1.3581617
C    0.7673641   -2.4533409    0.7797949
H   -0.1261328   -2.0007132    0.3475930